960

C	-2.6894	-4.1272	-16.6181
C	-8.2370	-1.3438	-17.1585
C	-4.5949	-1.4395	-5.8996
C	0.9527	-4.2229	-5.3592
C	-3.9355	-4.3916	-15.7827
C	-6.9909	-1.6082	-17.9939
C	-3.3488	-1.1751	-6.7350
C	-0.2934	-3.9585	-4.5238
C	-4.9588	-3.4575	-15.7602
C	-5.9676	-0.6741	-18.0164
C	-2.3254	-2.1092	-6.7576
C	-1.3167	-4.8926	-4.5013
H	-4.8490	-2.6236	-16.2038
H	-6.0774	-5.4069	-17.5728
H	-2.4352	-2.9431	-6.3140
H	-1.2069	-0.1598	-4.9449
C	-6.1489	-3.7397	-15.0891
C	-4.7776	-0.9564	-18.6875
C	-1.1354	-1.8270	-7.4286
C	-2.5067	-4.6103	-3.8303
H	-6.8610	-3.1101	-15.0779
H	-4.0655	-0.3268	-18.6987
H	-0.4233	-2.4566	-7.4399
H	-3.2188	-5.2399	-3.8190
C	-6.2734	-4.9566	-14.4361
C	-4.6530	-2.1732	-19.3405
C	-1.0109	-0.6101	-8.0816
C	-2.6313	-3.3935	-3.1773
C	-5.2338	-0.3268	-14.4046
C	-5.6927	-3.1101	-19.3720
C	-2.0505	-5.2399	-8.1131
C	-1.5916	-2.4566	-3.1457
H	-5.3267	-1.1367	-13.9160
H	-5.5998	-3.9201	-19.8606
H	-1.9576	-4.4300	-8.6018
H	-1.6845	-1.6466	-2.6571
C	-4.0618	-0.0490	-15.1026
C	-6.8647	-2.8323	-18.6739
C	-3.2225	-5.5177	-7.4151
C	-0.4196	-2.7344	-3.8438
H	-3.3534	-0.6808	-15.1184
H	-7.5730	-3.4642	-18.6582
H	-3.9309	-4.8859	-7.3993
H	0.2887	-2.1025	-3.8595
C	-7.5913	-4.9438	-11.9299
C	-3.3351	-2.1604	-21.8467
C	0.3070	-0.6229	-10.5878
C	-3.9492	-3.4063	-0.6710
C	-8.0215	-3.7074	-11.4818
C	-2.9049	-0.9241	-22.2948
C	0.7372	-1.8593	-11.0359
C	-4.3794	-4.6426	-0.2229
H	-8.3584	-3.0606	-12.0920
H	-2.5681	-0.2772	-21.6846
H	1.0741	-2.5061	-10.4257
H	-4.7162	-5.2895	-0.8332
C	-7.9500	-3.4308	-10.1150
C	-7.3114	-0.6474	-1.1439
C	0.6657	-2.1359	-12.4028
C	0.0271	-4.9193	-21.3738
H	-8.2263	-2.5824	-9.7907
H	-7.0352	-5.3657	-1.4682
H	0.9420	-2.9843	-12.7270
H	-0.2491	-0.2010	-21.0496
C	-7.4763	-4.3899	-9.2323
C	-7.7852	-1.6065	-2.0266
C	0.1920	-1.1768	-13.2855
C	0.5009	-3.9602	-20.4911
C	-7.0019	-0.0529	-9.6984
C	-8.2595	-2.8362	-1.5605
C	-0.2824	-5.5138	-12.8193
C	0.9752	-2.7305	-20.9572
H	-6.6445	-0.6908	-9.0927
H	-8.6170	-3.4742	-2.1662
H	-0.6398	-4.8759	-13.4251
H	1.3327	-2.0925	-20.3515
C	-7.0557	-0.3351	-11.0607
C	-8.2057	-3.1185	-0.1982
C	-0.2286	-5.2316	-11.4570
C	0.9215	-2.4482	-22.3196
H	-6.7332	-1.1634	-11.3962
H	-4.1933	-3.9468	-22.3804
H	-0.5511	-4.4033	-11.1215
H	-3.0910	-1.6199	-0.1374
C	-7.4834	-4.1060	-7.7529
C	-7.7781	-1.3226	-3.5060
C	0.1991	-1.4607	-14.7649
C	0.4938	-4.2441	-19.0117
O	-2.4239	-2.9197	-16.8385
O	3.1168	-0.1364	-16.9381
O	-4.8604	-2.6470	-5.6792
O	-10.4010	-5.4303	-5.5797
O	-2.0559	-5.1169	-17.0297
O	2.7488	-2.3336	-16.7469
O	-5.2284	-0.4498	-5.4880
O	-10.0331	-3.2331	-5.7708
O	-8.8309	-4.4767	-14.1582
O	-2.0956	-1.6934	-19.6183
O	1.5466	-1.0900	-8.3595
O	-5.1887	-3.8733	-2.8994
O	-7.9711	-1.2269	-13.7236
O	-2.9554	-4.0103	-20.0529
O	0.6868	-4.3398	-8.7941
O	-4.3289	-1.5564	-2.4648
O	-7.4453	-2.9125	-7.3712
O	-7.8161	-0.1291	-3.8877
O	0.1610	-2.6542	-15.1465
O	0.5319	-5.4376	-18.6300
O	-7.4827	-5.0935	-6.9656
O	-7.7787	-2.3102	-4.2932
O	0.1984	-0.4732	-15.5521
O	0.4944	-3.2565	-18.2245
S	-7.7934	-5.3641	-13.6426
S	-3.1330	-2.5807	-20.1340
S	0.5091	-0.2026	-8.8751
S	-4.1513	-2.9860	-2.3837
Ca	-0.8392	-1.4289	-17.5375
Ca	1.5321	-4.2123	-16.2391
Ca	-6.4450	-4.1378	-4.9802
Ca	-8.8164	-1.3544	-6.2786
C	-7.0244	-4.1272	5.8996
C	-12.5720	-1.3438	5.3592
C	-8.9299	-1.4395	16.6181
C	-3.3823	-4.2229	17.1585
C	-8.2705	-4.3916	6.7350
C	-11.3259	-1.6082	4.5238
C	-7.6838	-1.1751	15.7827
C	-4.6284	-3.9585	17.9939
C	-9.2939	-3.4575	6.7576
C	-10.3026	-0.6741	4.5013
C	-6.6605	-2.1092	15.7602
C	-5.6517	-4.8926	18.0164
H	-9.1841	-2.6236	6.3140
H	-10.4124	-5.4069	4.9449
H	-6.7703	-2.9431	16.2038
H	-5.5419	-0.1598	17.5728
C	-10.4839	-3.7397	7.4286
C	-9.1126	-0.9564	3.8303
C	-5.4704	-1.8270	15.0891
C	-6.8417	-4.6103	18.6875
H	-11.1960	-3.1101	7.4399
H	-8.4005	-0.3268	3.8190
H	-4.7583	-2.4566	15.0779
H	-7.5538	-5.2399	18.6987
C	-10.6084	-4.9566	8.0816
C	-8.9880	-2.1732	3.1773
C	-5.3459	-0.6101	14.4361
C	-6.9663	-3.3935	19.3405
C	-9.5688	-0.3268	8.1131
C	-10.0277	-3.1101	3.1457
C	-6.3855	-5.2399	14.4046
C	-5.9266	-2.4566	19.3720
H	-9.6617	-1.1367	8.6018
H	-9.9348	-3.9201	2.6571
H	-6.2926	-4.4300	13.9160
H	-6.0195	-1.6466	19.8606
C	-8.3968	-0.0490	7.4151
C	-11.1997	-2.8323	3.8438
C	-7.5575	-5.5177	15.1026
C	-4.7546	-2.7344	18.6739
H	-7.6884	-0.6808	7.3993
H	-11.9080	-3.4642	3.8595
H	-8.2659	-4.8859	15.1184
H	-4.0463	-2.1025	18.6582
C	-11.9263	-4.9438	10.5878
C	-7.6701	-2.1604	0.6710
C	-4.0280	-0.6229	11.9299
C	-8.2842	-3.4063	21.8467
C	-12.3565	-3.7074	11.0359
C	-7.2399	-0.9241	0.2229
C	-3.5978	-1.8593	11.4818
C	-8.7144	-4.6426	22.2948
H	-12.6934	-3.0606	10.4257
H	-6.9031	-0.2772	0.8332
H	-3.2609	-2.5061	12.0920
H	-9.0512	-5.2895	21.6846
C	-12.2850	-3.4308	12.4028
C	-11.6464	-0.6474	21.3738
C	-3.6693	-2.1359	10.1150
C	-4.3079	-4.9193	1.1439
H	-12.5613	-2.5824	12.7270
H	-11.3702	-5.3657	21.0496
H	-3.3930	-2.9843	9.7907
H	-4.5841	-0.2010	1.4682
C	-11.8113	-4.3899	13.2855
C	-12.1202	-1.6065	20.4911
C	-4.1430	-1.1768	9.2323
C	-3.8341	-3.9602	2.0266
C	-11.3369	-0.0529	12.8193
C	-12.5945	-2.8362	20.9572
C	-4.6174	-5.5138	9.6984
C	-3.3598	-2.7305	1.5605
H	-10.9795	-0.6908	13.4251
H	-12.9520	-3.4742	20.3515
H	-4.9748	-4.8759	9.0927
H	-3.0023	-2.0925	2.1662
C	-11.3907	-0.3351	11.4570
C	-12.5408	-3.1185	22.3196
C	-4.5636	-5.2316	11.0607
C	-3.4136	-2.4482	0.1982
H	-11.0682	-1.1634	11.1215
H	-8.5283	-3.9468	0.1374
H	-4.8861	-4.4033	11.3962
H	-7.4260	-1.6199	22.3804
C	-11.8184	-4.1060	14.7649
C	-12.1131	-1.3226	19.0117
C	-4.1359	-1.4607	7.7529
C	-3.8412	-4.2441	3.5060
O	-6.7589	-2.9197	5.6792
O	-1.2183	-0.1364	5.5797
O	-9.1954	-2.6470	16.8385
O	-14.7361	-5.4303	16.9381
O	-6.3909	-5.1169	5.4880
O	-1.5862	-2.3336	5.7708
O	-9.5634	-0.4498	17.0297
O	-14.3681	-3.2331	16.7469
O	-13.1659	-4.4767	8.3595
O	-6.4306	-1.6934	2.8994
O	-2.7884	-1.0900	14.1582
O	-9.5237	-3.8733	19.6183
O	-12.3061	-1.2269	8.7941
O	-7.2904	-4.0103	2.4648
O	-3.6482	-4.3398	13.7236
O	-8.6639	-1.5564	20.0529
O	-11.7803	-2.9125	15.1465
O	-12.1512	-0.1291	18.6300
O	-4.1740	-2.6542	7.3712
O	-3.8032	-5.4376	3.8877
O	-11.8177	-5.0935	15.5521
O	-12.1137	-2.3102	18.2245
O	-4.1366	-0.4732	6.9656
O	-3.8406	-3.2565	4.2932
S	-12.1284	-5.3641	8.8751
S	-7.4680	-2.5807	2.3837
S	-3.8259	-0.2026	13.6426
S	-8.4863	-2.9860	20.1340
Ca	-5.1743	-1.4289	4.9802
Ca	-2.8029	-4.2123	6.2786
Ca	-10.7801	-4.1378	17.5375
Ca	-13.1514	-1.3544	16.2391
C	-2.6894	1.4395	-16.6181
C	-8.2370	4.2229	-17.1585
C	-4.5949	4.1272	-5.8996
C	0.9527	1.3438	-5.3592
C	-3.9355	1.1751	-15.7827
C	-6.9909	3.9585	-17.9939
C	-3.3488	4.3916	-6.7350
C	-0.2934	1.6082	-4.5238
C	-4.9588	2.1092	-15.7602
C	-5.9676	4.8926	-18.0164
C	-2.3254	3.4575	-6.7576
C	-1.3167	0.6741	-4.5013
H	-4.8490	2.9431	-16.2038
H	-6.0774	0.1598	-17.5728
H	-2.4352	2.6236	-6.3140
H	-1.2069	5.4069	-4.9449
C	-6.1489	1.8270	-15.0891
C	-4.7776	4.6103	-18.6875
C	-1.1354	3.7397	-7.4286
C	-2.5067	0.9564	-3.8303
H	-6.8610	2.4566	-15.0779
H	-4.0655	5.2399	-18.6987
H	-0.4233	3.1101	-7.4399
H	-3.2188	0.3268	-3.8190
C	-6.2734	0.6101	-14.4361
C	-4.6530	3.3935	-19.3405
C	-1.0109	4.9566	-8.0816
C	-2.6313	2.1732	-3.1773
C	-5.2338	5.2399	-14.4046
C	-5.6927	2.4566	-19.3720
C	-2.0505	0.3268	-8.1131
C	-1.5916	3.1101	-3.1457
H	-5.3267	4.4300	-13.9160
H	-5.5998	1.6466	-19.8606
H	-1.9576	1.1367	-8.6018
H	-1.6845	3.9201	-2.6571
C	-4.0618	5.5177	-15.1026
C	-6.8647	2.7344	-18.6739
C	-3.2225	0.0490	-7.4151
C	-0.4196	2.8323	-3.8438
H	-3.3534	4.8859	-15.1184
H	-7.5730	2.1025	-18.6582
H	-3.9309	0.6808	-7.3993
H	0.2887	3.4642	-3.8595
C	-7.5913	0.6229	-11.9299
C	-3.3351	3.4063	-21.8467
C	0.3070	4.9438	-10.5878
C	-3.9492	2.1604	-0.6710
C	-8.0215	1.8593	-11.4818
C	-2.9049	4.6426	-22.2948
C	0.7372	3.7074	-11.0359
C	-4.3794	0.9241	-0.2229
H	-8.3584	2.5061	-12.0920
H	-2.5681	5.2895	-21.6846
H	1.0741	3.0606	-10.4257
H	-4.7162	0.2772	-0.8332
C	-7.9500	2.1359	-10.1150
C	-7.3114	4.9193	-1.1439
C	0.6657	3.4308	-12.4028
C	0.0271	0.6474	-21.3738
H	-8.2263	2.9843	-9.7907
H	-7.0352	0.2010	-1.4682
H	0.9420	2.5824	-12.7270
H	-0.2491	5.3657	-21.0496
C	-7.4763	1.1768	-9.2323
C	-7.7852	3.9602	-2.0266
C	0.1920	4.3899	-13.2855
C	0.5009	1.6065	-20.4911
C	-7.0019	5.5138	-9.6984
C	-8.2595	2.7305	-1.5605
C	-0.2824	0.0529	-12.8193
C	0.9752	2.8362	-20.9572
H	-6.6445	4.8759	-9.0927
H	-8.6170	2.0925	-2.1662
H	-0.6398	0.6908	-13.4251
H	1.3327	3.4742	-20.3515
C	-7.0557	5.2316	-11.0607
C	-8.2057	2.4482	-0.1982
C	-0.2286	0.3351	-11.4570
C	0.9215	3.1185	-22.3196
H	-6.7332	4.4033	-11.3962
H	-4.1933	1.6199	-22.3804
H	-0.5511	1.1634	-11.1215
H	-3.0910	3.9468	-0.1374
C	-7.4834	1.4607	-7.7529
C	-7.7781	4.2441	-3.5060
C	0.1991	4.1060	-14.7649
C	0.4938	1.3226	-19.0117
O	-2.4239	2.6470	-16.8385
O	3.1168	5.4303	-16.9381
O	-4.8604	2.9197	-5.6792
O	-10.4010	0.1364	-5.5797
O	-2.0559	0.4498	-17.0297
O	2.7488	3.2331	-16.7469
O	-5.2284	5.1169	-5.4880
O	-10.0331	2.3336	-5.7708
O	-8.8309	1.0900	-14.1582
O	-2.0956	3.8733	-19.6183
O	1.5466	4.4767	-8.3595
O	-5.1887	1.6934	-2.8994
O	-7.9711	4.3398	-13.7236
O	-2.9554	1.5564	-20.0529
O	0.6868	1.2269	-8.7941
O	-4.3289	4.0103	-2.4648
O	-7.4453	2.6542	-7.3712
O	-7.8161	5.4376	-3.8877
O	0.1610	2.9125	-15.1465
O	0.5319	0.1291	-18.6300
O	-7.4827	0.4732	-6.9656
O	-7.7787	3.2565	-4.2932
O	0.1984	5.0935	-15.5521
O	0.4944	2.3102	-18.2245
S	-7.7934	0.2026	-13.6426
S	-3.1330	2.9860	-20.1340
S	0.5091	5.3641	-8.8751
S	-4.1513	2.5807	-2.3837
Ca	-0.8392	4.1378	-17.5375
Ca	1.5321	1.3544	-16.2391
Ca	-6.4450	1.4289	-4.9802
Ca	-8.8164	4.2123	-6.2786
C	-7.0244	1.4395	5.8996
C	-12.5720	4.2229	5.3592
C	-8.9299	4.1272	16.6181
C	-3.3823	1.3438	17.1585
C	-8.2705	1.1751	6.7350
C	-11.3259	3.9585	4.5238
C	-7.6838	4.3916	15.7827
C	-4.6284	1.6082	17.9939
C	-9.2939	2.1092	6.7576
C	-10.3026	4.8926	4.5013
C	-6.6605	3.4575	15.7602
C	-5.6517	0.6741	18.0164
H	-9.1841	2.9431	6.3140
H	-10.4124	0.1598	4.9449
H	-6.7703	2.6236	16.2038
H	-5.5419	5.4069	17.5728
C	-10.4839	1.8270	7.4286
C	-9.1126	4.6103	3.8303
C	-5.4704	3.7397	15.0891
C	-6.8417	0.9564	18.6875
H	-11.1960	2.4566	7.4399
H	-8.4005	5.2399	3.8190
H	-4.7583	3.1101	15.0779
H	-7.5538	0.3268	18.6987
C	-10.6084	0.6101	8.0816
C	-8.9880	3.3935	3.1773
C	-5.3459	4.9566	14.4361
C	-6.9663	2.1732	19.3405
C	-9.5688	5.2399	8.1131
C	-10.0277	2.4566	3.1457
C	-6.3855	0.3268	14.4046
C	-5.9266	3.1101	19.3720
H	-9.6617	4.4300	8.6018
H	-9.9348	1.6466	2.6571
H	-6.2926	1.1367	13.9160
H	-6.0195	3.9201	19.8606
C	-8.3968	5.5177	7.4151
C	-11.1997	2.7344	3.8438
C	-7.5575	0.0490	15.1026
C	-4.7546	2.8323	18.6739
H	-7.6884	4.8859	7.3993
H	-11.9080	2.1025	3.8595
H	-8.2659	0.6808	15.1184
H	-4.0463	3.4642	18.6582
C	-11.9263	0.6229	10.5878
C	-7.6701	3.4063	0.6710
C	-4.0280	4.9438	11.9299
C	-8.2842	2.1604	21.8467
C	-12.3565	1.8593	11.0359
C	-7.2399	4.6426	0.2229
C	-3.5978	3.7074	11.4818
C	-8.7144	0.9241	22.2948
H	-12.6934	2.5061	10.4257
H	-6.9031	5.2895	0.8332
H	-3.2609	3.0606	12.0920
H	-9.0512	0.2772	21.6846
C	-12.2850	2.1359	12.4028
C	-11.6464	4.9193	21.3738
C	-3.6693	3.4308	10.1150
C	-4.3079	0.6474	1.1439
H	-12.5613	2.9843	12.7270
H	-11.3702	0.2010	21.0496
H	-3.3930	2.5824	9.7907
H	-4.5841	5.3657	1.4682
C	-11.8113	1.1768	13.2855
C	-12.1202	3.9602	20.4911
C	-4.1430	4.3899	9.2323
C	-3.8341	1.6065	2.0266
C	-11.3369	5.5138	12.8193
C	-12.5945	2.7305	20.9572
C	-4.6174	0.0529	9.6984
C	-3.3598	2.8362	1.5605
H	-10.9795	4.8759	13.4251
H	-12.9520	2.0925	20.3515
H	-4.9748	0.6908	9.0927
H	-3.0023	3.4742	2.1662
C	-11.3907	5.2316	11.4570
C	-12.5408	2.4482	22.3196
C	-4.5636	0.3351	11.0607
C	-3.4136	3.1185	0.1982
H	-11.0682	4.4033	11.1215
H	-8.5283	1.6199	0.1374
H	-4.8861	1.1634	11.3962
H	-7.4260	3.9468	22.3804
C	-11.8184	1.4607	14.7649
C	-12.1131	4.2441	19.0117
C	-4.1359	4.1060	7.7529
C	-3.8412	1.3226	3.5060
O	-6.7589	2.6470	5.6792
O	-1.2183	5.4303	5.5797
O	-9.1954	2.9197	16.8385
O	-14.7361	0.1364	16.9381
O	-6.3909	0.4498	5.4880
O	-1.5862	3.2331	5.7708
O	-9.5634	5.1169	17.0297
O	-14.3681	2.3336	16.7469
O	-13.1659	1.0900	8.3595
O	-6.4306	3.8733	2.8994
O	-2.7884	4.4767	14.1582
O	-9.5237	1.6934	19.6183
O	-12.3061	4.3398	8.7941
O	-7.2904	1.5564	2.4648
O	-3.6482	1.2269	13.7236
O	-8.6639	4.0103	20.0529
O	-11.7803	2.6542	15.1465
O	-12.1512	5.4376	18.6300
O	-4.1740	2.9125	7.3712
O	-3.8032	0.1291	3.8877
O	-11.8177	0.4732	15.5521
O	-12.1137	3.2565	18.2245
O	-4.1366	5.0935	6.9656
O	-3.8406	2.3102	4.2932
S	-12.1284	0.2026	8.8751
S	-7.4680	2.9860	2.3837
S	-3.8259	5.3641	13.6426
S	-8.4863	2.5807	20.1340
Ca	-5.1743	4.1378	4.9802
Ca	-2.8029	1.3544	6.2786
Ca	-10.7801	1.4289	17.5375
Ca	-13.1514	4.2123	16.2391
C	8.9299	-4.1272	-16.6181
C	3.3823	-1.3438	-17.1585
C	7.0244	-1.4395	-5.8996
C	12.5720	-4.2229	-5.3592
C	7.6838	-4.3916	-15.7827
C	4.6284	-1.6082	-17.9939
C	8.2705	-1.1751	-6.7350
C	11.3259	-3.9585	-4.5238
C	6.6605	-3.4575	-15.7602
C	5.6517	-0.6741	-18.0164
C	9.2939	-2.1092	-6.7576
C	10.3026	-4.8926	-4.5013
H	6.7703	-2.6236	-16.2038
H	5.5419	-5.4069	-17.5728
H	9.1841	-2.9431	-6.3140
H	10.4124	-0.1598	-4.9449
C	5.4704	-3.7397	-15.0891
C	6.8417	-0.9564	-18.6875
C	10.4839	-1.8270	-7.4286
C	9.1126	-4.6103	-3.8303
H	4.7583	-3.1101	-15.0779
H	7.5538	-0.3268	-18.6987
H	11.1960	-2.4566	-7.4399
H	8.4005	-5.2399	-3.8190
C	5.3459	-4.9566	-14.4361
C	6.9663	-2.1732	-19.3405
C	10.6084	-0.6101	-8.0816
C	8.9880	-3.3935	-3.1773
C	6.3855	-0.3268	-14.4046
C	5.9266	-3.1101	-19.3720
C	9.5688	-5.2399	-8.1131
C	10.0277	-2.4566	-3.1457
H	6.2926	-1.1367	-13.9160
H	6.0195	-3.9201	-19.8606
H	9.6617	-4.4300	-8.6018
H	9.9348	-1.6466	-2.6571
C	7.5575	-0.0490	-15.1026
C	4.7546	-2.8323	-18.6739
C	8.3968	-5.5177	-7.4151
C	11.1997	-2.7344	-3.8438
H	8.2659	-0.6808	-15.1184
H	4.0463	-3.4642	-18.6582
H	7.6884	-4.8859	-7.3993
H	11.9080	-2.1025	-3.8595
C	4.0280	-4.9438	-11.9299
C	8.2842	-2.1604	-21.8467
C	11.9263	-0.6229	-10.5878
C	7.6701	-3.4063	-0.6710
C	3.5978	-3.7074	-11.4818
C	8.7144	-0.9241	-22.2948
C	12.3565	-1.8593	-11.0359
C	7.2399	-4.6426	-0.2229
H	3.2609	-3.0606	-12.0920
H	9.0512	-0.2772	-21.6846
H	12.6934	-2.5061	-10.4257
H	6.9031	-5.2895	-0.8332
C	3.6693	-3.4308	-10.1150
C	4.3079	-0.6474	-1.1439
C	12.2850	-2.1359	-12.4028
C	11.6464	-4.9193	-21.3738
H	3.3930	-2.5824	-9.7907
H	4.5841	-5.3657	-1.4682
H	12.5613	-2.9843	-12.7270
H	11.3702	-0.2010	-21.0496
C	4.1430	-4.3899	-9.2323
C	3.8341	-1.6065	-2.0266
C	11.8113	-1.1768	-13.2855
C	12.1202	-3.9602	-20.4911
C	4.6174	-0.0529	-9.6984
C	3.3598	-2.8362	-1.5605
C	11.3369	-5.5138	-12.8193
C	12.5945	-2.7305	-20.9572
H	4.9748	-0.6908	-9.0927
H	3.0023	-3.4742	-2.1662
H	10.9795	-4.8759	-13.4251
H	12.9520	-2.0925	-20.3515
C	4.5636	-0.3351	-11.0607
C	3.4136	-3.1185	-0.1982
C	11.3907	-5.2316	-11.4570
C	12.5408	-2.4482	-22.3196
H	4.8861	-1.1634	-11.3962
H	7.4260	-3.9468	-22.3804
H	11.0682	-4.4033	-11.1215
H	8.5283	-1.6199	-0.1374
C	4.1359	-4.1060	-7.7529
C	3.8412	-1.3226	-3.5060
C	11.8184	-1.4607	-14.7649
C	12.1131	-4.2441	-19.0117
O	9.1954	-2.9197	-16.8385
O	14.7361	-0.1364	-16.9381
O	6.7589	-2.6470	-5.6792
O	1.2183	-5.4303	-5.5797
O	9.5634	-5.1169	-17.0297
O	14.3681	-2.3336	-16.7469
O	6.3909	-0.4498	-5.4880
O	1.5862	-3.2331	-5.7708
O	2.7884	-4.4767	-14.1582
O	9.5237	-1.6934	-19.6183
O	13.1659	-1.0900	-8.3595
O	6.4306	-3.8733	-2.8994
O	3.6482	-1.2269	-13.7236
O	8.6639	-4.0103	-20.0529
O	12.3061	-4.3398	-8.7941
O	7.2904	-1.5564	-2.4648
O	4.1740	-2.9125	-7.3712
O	3.8032	-0.1291	-3.8877
O	11.7803	-2.6542	-15.1465
O	12.1512	-5.4376	-18.6300
O	4.1366	-5.0935	-6.9656
O	3.8406	-2.3102	-4.2932
O	11.8177	-0.4732	-15.5521
O	12.1137	-3.2565	-18.2245
S	3.8259	-5.3641	-13.6426
S	8.4863	-2.5807	-20.1340
S	12.1284	-0.2026	-8.8751
S	7.4680	-2.9860	-2.3837
Ca	10.7801	-1.4289	-17.5375
Ca	13.1514	-4.2123	-16.2391
Ca	5.1743	-4.1378	-4.9802
Ca	2.8029	-1.3544	-6.2786
C	4.5949	-4.1272	5.8996
C	-0.9527	-1.3438	5.3592
C	2.6894	-1.4395	16.6181
C	8.2370	-4.2229	17.1585
C	3.3488	-4.3916	6.7350
C	0.2934	-1.6082	4.5238
C	3.9355	-1.1751	15.7827
C	6.9909	-3.9585	17.9939
C	2.3254	-3.4575	6.7576
C	1.3167	-0.6741	4.5013
C	4.9588	-2.1092	15.7602
C	5.9676	-4.8926	18.0164
H	2.4352	-2.6236	6.3140
H	1.2069	-5.4069	4.9449
H	4.8490	-2.9431	16.2038
H	6.0774	-0.1598	17.5728
C	1.1354	-3.7397	7.4286
C	2.5067	-0.9564	3.8303
C	6.1489	-1.8270	15.0891
C	4.7776	-4.6103	18.6875
H	0.4233	-3.1101	7.4399
H	3.2188	-0.3268	3.8190
H	6.8610	-2.4566	15.0779
H	4.0655	-5.2399	18.6987
C	1.0109	-4.9566	8.0816
C	2.6313	-2.1732	3.1773
C	6.2734	-0.6101	14.4361
C	4.6530	-3.3935	19.3405
C	2.0505	-0.3268	8.1131
C	1.5916	-3.1101	3.1457
C	5.2338	-5.2399	14.4046
C	5.6927	-2.4566	19.3720
H	1.9576	-1.1367	8.6018
H	1.6845	-3.9201	2.6571
H	5.3267	-4.4300	13.9160
H	5.5998	-1.6466	19.8606
C	3.2225	-0.0490	7.4151
C	0.4196	-2.8323	3.8438
C	4.0618	-5.5177	15.1026
C	6.8647	-2.7344	18.6739
H	3.9309	-0.6808	7.3993
H	-0.2887	-3.4642	3.8595
H	3.3534	-4.8859	15.1184
H	7.5730	-2.1025	18.6582
C	-0.3070	-4.9438	10.5878
C	3.9492	-2.1604	0.6710
C	7.5913	-0.6229	11.9299
C	3.3351	-3.4063	21.8467
C	-0.7372	-3.7074	11.0359
C	4.3794	-0.9241	0.2229
C	8.0215	-1.8593	11.4818
C	2.9049	-4.6426	22.2948
H	-1.0741	-3.0606	10.4257
H	4.7162	-0.2772	0.8332
H	8.3584	-2.5061	12.0920
H	2.5681	-5.2895	21.6846
C	-0.6657	-3.4308	12.4028
C	-0.0271	-0.6474	21.3738
C	7.9500	-2.1359	10.1150
C	7.3114	-4.9193	1.1439
H	-0.9420	-2.5824	12.7270
H	0.2491	-5.3657	21.0496
H	8.2263	-2.9843	9.7907
H	7.0352	-0.2010	1.4682
C	-0.1920	-4.3899	13.2855
C	-0.5009	-1.6065	20.4911
C	7.4763	-1.1768	9.2323
C	7.7852	-3.9602	2.0266
C	0.2824	-0.0529	12.8193
C	-0.9752	-2.8362	20.9572
C	7.0019	-5.5138	9.6984
C	8.2595	-2.7305	1.5605
H	0.6398	-0.6908	13.4251
H	-1.3327	-3.4742	20.3515
H	6.6445	-4.8759	9.0927
H	8.6170	-2.0925	2.1662
C	0.2286	-0.3351	11.4570
C	-0.9215	-3.1185	22.3196
C	7.0557	-5.2316	11.0607
C	8.2057	-2.4482	0.1982
H	0.5511	-1.1634	11.1215
H	3.0910	-3.9468	0.1374
H	6.7332	-4.4033	11.3962
H	4.1933	-1.6199	22.3804
C	-0.1991	-4.1060	14.7649
C	-0.4938	-1.3226	19.0117
C	7.4834	-1.4607	7.7529
C	7.7781	-4.2441	3.5060
O	4.8604	-2.9197	5.6792
O	10.4010	-0.1364	5.5797
O	2.4239	-2.6470	16.8385
O	-3.1168	-5.4303	16.9381
O	5.2284	-5.1169	5.4880
O	10.0331	-2.3336	5.7708
O	2.0559	-0.4498	17.0297
O	-2.7488	-3.2331	16.7469
O	-1.5466	-4.4767	8.3595
O	5.1887	-1.6934	2.8994
O	8.8309	-1.0900	14.1582
O	2.0956	-3.8733	19.6183
O	-0.6868	-1.2269	8.7941
O	4.3289	-4.0103	2.4648
O	7.9711	-4.3398	13.7236
O	2.9554	-1.5564	20.0529
O	-0.1610	-2.9125	15.1465
O	-0.5319	-0.1291	18.6300
O	7.4453	-2.6542	7.3712
O	7.8161	-5.4376	3.8877
O	-0.1984	-5.0935	15.5521
O	-0.4944	-2.3102	18.2245
O	7.4827	-0.4732	6.9656
O	7.7787	-3.2565	4.2932
S	-0.5091	-5.3641	8.8751
S	4.1513	-2.5807	2.3837
S	7.7934	-0.2026	13.6426
S	3.1330	-2.9860	20.1340
Ca	6.4450	-1.4289	4.9802
Ca	8.8164	-4.2123	6.2786
Ca	0.8392	-4.1378	17.5375
Ca	-1.5321	-1.3544	16.2391
C	8.9299	1.4395	-16.6181
C	3.3823	4.2229	-17.1585
C	7.0244	4.1272	-5.8996
C	12.5720	1.3438	-5.3592
C	7.6838	1.1751	-15.7827
C	4.6284	3.9585	-17.9939
C	8.2705	4.3916	-6.7350
C	11.3259	1.6082	-4.5238
C	6.6605	2.1092	-15.7602
C	5.6517	4.8926	-18.0164
C	9.2939	3.4575	-6.7576
C	10.3026	0.6741	-4.5013
H	6.7703	2.9431	-16.2038
H	5.5419	0.1598	-17.5728
H	9.1841	2.6236	-6.3140
H	10.4124	5.4069	-4.9449
C	5.4704	1.8270	-15.0891
C	6.8417	4.6103	-18.6875
C	10.4839	3.7397	-7.4286
C	9.1126	0.9564	-3.8303
H	4.7583	2.4566	-15.0779
H	7.5538	5.2399	-18.6987
H	11.1960	3.1101	-7.4399
H	8.4005	0.3268	-3.8190
C	5.3459	0.6101	-14.4361
C	6.9663	3.3935	-19.3405
C	10.6084	4.9566	-8.0816
C	8.9880	2.1732	-3.1773
C	6.3855	5.2399	-14.4046
C	5.9266	2.4566	-19.3720
C	9.5688	0.3268	-8.1131
C	10.0277	3.1101	-3.1457
H	6.2926	4.4300	-13.9160
H	6.0195	1.6466	-19.8606
H	9.6617	1.1367	-8.6018
H	9.9348	3.9201	-2.6571
C	7.5575	5.5177	-15.1026
C	4.7546	2.7344	-18.6739
C	8.3968	0.0490	-7.4151
C	11.1997	2.8323	-3.8438
H	8.2659	4.8859	-15.1184
H	4.0463	2.1025	-18.6582
H	7.6884	0.6808	-7.3993
H	11.9080	3.4642	-3.8595
C	4.0280	0.6229	-11.9299
C	8.2842	3.4063	-21.8467
C	11.9263	4.9438	-10.5878
C	7.6701	2.1604	-0.6710
C	3.5978	1.8593	-11.4818
C	8.7144	4.6426	-22.2948
C	12.3565	3.7074	-11.0359
C	7.2399	0.9241	-0.2229
H	3.2609	2.5061	-12.0920
H	9.0512	5.2895	-21.6846
H	12.6934	3.0606	-10.4257
H	6.9031	0.2772	-0.8332
C	3.6693	2.1359	-10.1150
C	4.3079	4.9193	-1.1439
C	12.2850	3.4308	-12.4028
C	11.6464	0.6474	-21.3738
H	3.3930	2.9843	-9.7907
H	4.5841	0.2010	-1.4682
H	12.5613	2.5824	-12.7270
H	11.3702	5.3657	-21.0496
C	4.1430	1.1768	-9.2323
C	3.8341	3.9602	-2.0266
C	11.8113	4.3899	-13.2855
C	12.1202	1.6065	-20.4911
C	4.6174	5.5138	-9.6984
C	3.3598	2.7305	-1.5605
C	11.3369	0.0529	-12.8193
C	12.5945	2.8362	-20.9572
H	4.9748	4.8759	-9.0927
H	3.0023	2.0925	-2.1662
H	10.9795	0.6908	-13.4251
H	12.9520	3.4742	-20.3515
C	4.5636	5.2316	-11.0607
C	3.4136	2.4482	-0.1982
C	11.3907	0.3351	-11.4570
C	12.5408	3.1185	-22.3196
H	4.8861	4.4033	-11.3962
H	7.4260	1.6199	-22.3804
H	11.0682	1.1634	-11.1215
H	8.5283	3.9468	-0.1374
C	4.1359	1.4607	-7.7529
C	3.8412	4.2441	-3.5060
C	11.8184	4.1060	-14.7649
C	12.1131	1.3226	-19.0117
O	9.1954	2.6470	-16.8385
O	14.7361	5.4303	-16.9381
O	6.7589	2.9197	-5.6792
O	1.2183	0.1364	-5.5797
O	9.5634	0.4498	-17.0297
O	14.3681	3.2331	-16.7469
O	6.3909	5.1169	-5.4880
O	1.5862	2.3336	-5.7708
O	2.7884	1.0900	-14.1582
O	9.5237	3.8733	-19.6183
O	13.1659	4.4767	-8.3595
O	6.4306	1.6934	-2.8994
O	3.6482	4.3398	-13.7236
O	8.6639	1.5564	-20.0529
O	12.3061	1.2269	-8.7941
O	7.2904	4.0103	-2.4648
O	4.1740	2.6542	-7.3712
O	3.8032	5.4376	-3.8877
O	11.7803	2.9125	-15.1465
O	12.1512	0.1291	-18.6300
O	4.1366	0.4732	-6.9656
O	3.8406	3.2565	-4.2932
O	11.8177	5.0935	-15.5521
O	12.1137	2.3102	-18.2245
S	3.8259	0.2026	-13.6426
S	8.4863	2.9860	-20.1340
S	12.1284	5.3641	-8.8751
S	7.4680	2.5807	-2.3837
Ca	10.7801	4.1378	-17.5375
Ca	13.1514	1.3544	-16.2391
Ca	5.1743	1.4289	-4.9802
Ca	2.8029	4.2123	-6.2786
C	4.5949	1.4395	5.8996
C	-0.9527	4.2229	5.3592
C	2.6894	4.1272	16.6181
C	8.2370	1.3438	17.1585
C	3.3488	1.1751	6.7350
C	0.2934	3.9585	4.5238
C	3.9355	4.3916	15.7827
C	6.9909	1.6082	17.9939
C	2.3254	2.1092	6.7576
C	1.3167	4.8926	4.5013
C	4.9588	3.4575	15.7602
C	5.9676	0.6741	18.0164
H	2.4352	2.9431	6.3140
H	1.2069	0.1598	4.9449
H	4.8490	2.6236	16.2038
H	6.0774	5.4069	17.5728
C	1.1354	1.8270	7.4286
C	2.5067	4.6103	3.8303
C	6.1489	3.7397	15.0891
C	4.7776	0.9564	18.6875
H	0.4233	2.4566	7.4399
H	3.2188	5.2399	3.8190
H	6.8610	3.1101	15.0779
H	4.0655	0.3268	18.6987
C	1.0109	0.6101	8.0816
C	2.6313	3.3935	3.1773
C	6.2734	4.9566	14.4361
C	4.6530	2.1732	19.3405
C	2.0505	5.2399	8.1131
C	1.5916	2.4566	3.1457
C	5.2338	0.3268	14.4046
C	5.6927	3.1101	19.3720
H	1.9576	4.4300	8.6018
H	1.6845	1.6466	2.6571
H	5.3267	1.1367	13.9160
H	5.5998	3.9201	19.8606
C	3.2225	5.5177	7.4151
C	0.4196	2.7344	3.8438
C	4.0618	0.0490	15.1026
C	6.8647	2.8323	18.6739
H	3.9309	4.8859	7.3993
H	-0.2887	2.1025	3.8595
H	3.3534	0.6808	15.1184
H	7.5730	3.4642	18.6582
C	-0.3070	0.6229	10.5878
C	3.9492	3.4063	0.6710
C	7.5913	4.9438	11.9299
C	3.3351	2.1604	21.8467
C	-0.7372	1.8593	11.0359
C	4.3794	4.6426	0.2229
C	8.0215	3.7074	11.4818
C	2.9049	0.9241	22.2948
H	-1.0741	2.5061	10.4257
H	4.7162	5.2895	0.8332
H	8.3584	3.0606	12.0920
H	2.5681	0.2772	21.6846
C	-0.6657	2.1359	12.4028
C	-0.0271	4.9193	21.3738
C	7.9500	3.4308	10.1150
C	7.3114	0.6474	1.1439
H	-0.9420	2.9843	12.7270
H	0.2491	0.2010	21.0496
H	8.2263	2.5824	9.7907
H	7.0352	5.3657	1.4682
C	-0.1920	1.1768	13.2855
C	-0.5009	3.9602	20.4911
C	7.4763	4.3899	9.2323
C	7.7852	1.6065	2.0266
C	0.2824	5.5138	12.8193
C	-0.9752	2.7305	20.9572
C	7.0019	0.0529	9.6984
C	8.2595	2.8362	1.5605
H	0.6398	4.8759	13.4251
H	-1.3327	2.0925	20.3515
H	6.6445	0.6908	9.0927
H	8.6170	3.4742	2.1662
C	0.2286	5.2316	11.4570
C	-0.9215	2.4482	22.3196
C	7.0557	0.3351	11.0607
C	8.2057	3.1185	0.1982
H	0.5511	4.4033	11.1215
H	3.0910	1.6199	0.1374
H	6.7332	1.1634	11.3962
H	4.1933	3.9468	22.3804
C	-0.1991	1.4607	14.7649
C	-0.4938	4.2441	19.0117
C	7.4834	4.1060	7.7529
C	7.7781	1.3226	3.5060
O	4.8604	2.6470	5.6792
O	10.4010	5.4303	5.5797
O	2.4239	2.9197	16.8385
O	-3.1168	0.1364	16.9381
O	5.2284	0.4498	5.4880
O	10.0331	3.2331	5.7708
O	2.0559	5.1169	17.0297
O	-2.7488	2.3336	16.7469
O	-1.5466	1.0900	8.3595
O	5.1887	3.8733	2.8994
O	8.8309	4.4767	14.1582
O	2.0956	1.6934	19.6183
O	-0.6868	4.3398	8.7941
O	4.3289	1.5564	2.4648
O	7.9711	1.2269	13.7236
O	2.9554	4.0103	20.0529
O	-0.1610	2.6542	15.1465
O	-0.5319	5.4376	18.6300
O	7.4453	2.9125	7.3712
O	7.8161	0.1291	3.8877
O	-0.1984	0.4732	15.5521
O	-0.4944	3.2565	18.2245
O	7.4827	5.0935	6.9656
O	7.7787	2.3102	4.2932
S	-0.5091	0.2026	8.8751
S	4.1513	2.9860	2.3837
S	7.7934	5.3641	13.6426
S	3.1330	2.5807	20.1340
Ca	6.4450	4.1378	4.9802
Ca	8.8164	1.3544	6.2786
Ca	0.8392	1.4289	17.5375
Ca	-1.5321	4.2123	16.2391
